
---------- Begin Simulation Statistics ----------
sim_seconds                                  0.270487                       # Number of seconds simulated
sim_ticks                                270486762000                       # Number of ticks simulated
final_tick                               270486762000                       # Number of ticks from beginning of simulation (restored from checkpoints and never reset)
sim_freq                                 1000000000000                       # Frequency of simulated ticks
host_inst_rate                                 697212                       # Simulator instruction rate (inst/s)
host_op_rate                                  1499703                       # Simulator op (including micro ops) rate (op/s)
host_tick_rate                            13794917058                       # Simulator tick rate (ticks/s)
host_mem_usage                                 660952                       # Number of bytes of host memory used
host_seconds                                    19.61                       # Real time elapsed on the host
sim_insts                                    13670732                       # Number of instructions simulated
sim_ops                                      29405743                       # Number of ops (including micro ops) simulated
system.voltage_domain.voltage                       1                       # Voltage in Volts
system.clk_domain.clock                          1000                       # Clock period in ticks
system.mem_ctrls.pwrStateResidencyTicks::UNDEFINED 270486762000                       # Cumulative time (in ticks) in various power states
system.mem_ctrls.bytes_read::cpu.inst           20480                       # Number of bytes read from this memory
system.mem_ctrls.bytes_read::cpu.data            9600                       # Number of bytes read from this memory
system.mem_ctrls.bytes_read::total              30080                       # Number of bytes read from this memory
system.mem_ctrls.bytes_inst_read::cpu.inst        20480                       # Number of instructions bytes read from this memory
system.mem_ctrls.bytes_inst_read::total         20480                       # Number of instructions bytes read from this memory
system.mem_ctrls.bytes_written::writebacks     34576192                       # Number of bytes written to this memory
system.mem_ctrls.bytes_written::total        34576192                       # Number of bytes written to this memory
system.mem_ctrls.num_reads::cpu.inst              320                       # Number of read requests responded to by this memory
system.mem_ctrls.num_reads::cpu.data              150                       # Number of read requests responded to by this memory
system.mem_ctrls.num_reads::total                 470                       # Number of read requests responded to by this memory
system.mem_ctrls.num_writes::writebacks        540253                       # Number of write requests responded to by this memory
system.mem_ctrls.num_writes::total             540253                       # Number of write requests responded to by this memory
system.mem_ctrls.bw_read::cpu.inst              75715                       # Total read bandwidth from this memory (bytes/s)
system.mem_ctrls.bw_read::cpu.data              35492                       # Total read bandwidth from this memory (bytes/s)
system.mem_ctrls.bw_read::total                111207                       # Total read bandwidth from this memory (bytes/s)
system.mem_ctrls.bw_inst_read::cpu.inst         75715                       # Instruction read bandwidth from this memory (bytes/s)
system.mem_ctrls.bw_inst_read::total            75715                       # Instruction read bandwidth from this memory (bytes/s)
system.mem_ctrls.bw_write::writebacks       127829516                       # Write bandwidth from this memory (bytes/s)
system.mem_ctrls.bw_write::total            127829516                       # Write bandwidth from this memory (bytes/s)
system.mem_ctrls.bw_total::writebacks       127829516                       # Total bandwidth to/from this memory (bytes/s)
system.mem_ctrls.bw_total::cpu.inst             75715                       # Total bandwidth to/from this memory (bytes/s)
system.mem_ctrls.bw_total::cpu.data             35492                       # Total bandwidth to/from this memory (bytes/s)
system.mem_ctrls.bw_total::total            127940723                       # Total bandwidth to/from this memory (bytes/s)
system.pwrStateResidencyTicks::UNDEFINED 270486762000                       # Cumulative time (in ticks) in various power states
system.cpu_voltage_domain.voltage                   1                       # Voltage in Volts
system.cpu_clk_domain.clock                       500                       # Clock period in ticks
system.cpu.dtb.walker.pwrStateResidencyTicks::UNDEFINED 270486762000                       # Cumulative time (in ticks) in various power states
system.cpu.dtb.rdAccesses                     5041687                       # TLB accesses on read requests
system.cpu.dtb.wrAccesses                     3241820                       # TLB accesses on write requests
system.cpu.dtb.rdMisses                             9                       # TLB misses on read requests
system.cpu.dtb.wrMisses                             7                       # TLB misses on write requests
system.cpu.apic_clk_domain.clock                 8000                       # Clock period in ticks
system.cpu.interrupts.pwrStateResidencyTicks::UNDEFINED 270486762000                       # Cumulative time (in ticks) in various power states
system.cpu.itb.walker.pwrStateResidencyTicks::UNDEFINED 270486762000                       # Cumulative time (in ticks) in various power states
system.cpu.itb.rdAccesses                           0                       # TLB accesses on read requests
system.cpu.itb.wrAccesses                    16462951                       # TLB accesses on write requests
system.cpu.itb.rdMisses                             0                       # TLB misses on read requests
system.cpu.itb.wrMisses                            36                       # TLB misses on write requests
system.cpu.workload.numSyscalls                     9                       # Number of system calls
system.cpu.pwrStateResidencyTicks::ON    270486762000                       # Cumulative time (in ticks) in various power states
system.cpu.numCycles                        540973524                       # number of cpu cycles simulated
system.cpu.numWorkItemsStarted                      0                       # number of work items this cpu started
system.cpu.numWorkItemsCompleted                    0                       # number of work items this cpu completed
system.cpu.committedInsts                    13670732                       # Number of instructions committed
system.cpu.committedOps                      29405743                       # Number of ops (including micro ops) committed
system.cpu.num_int_alu_accesses              29405455                       # Number of integer alu accesses
system.cpu.num_fp_alu_accesses                      6                       # Number of float alu accesses
system.cpu.num_vec_alu_accesses                     0                       # Number of vector alu accesses
system.cpu.num_func_calls                     1440430                       # number of times a function call or return occured
system.cpu.num_conditional_control_insts      1885738                       # number of instructions that are conditional controls
system.cpu.num_int_insts                     29405455                       # number of integer instructions
system.cpu.num_fp_insts                             6                       # number of float instructions
system.cpu.num_vec_insts                            0                       # number of vector instructions
system.cpu.num_int_register_reads            58112327                       # number of times the integer registers were read
system.cpu.num_int_register_writes           22483523                       # number of times the integer registers were written
system.cpu.num_fp_register_reads                    2                       # number of times the floating registers were read
system.cpu.num_fp_register_writes                   4                       # number of times the floating registers were written
system.cpu.num_vec_register_reads                   0                       # number of times the vector registers were read
system.cpu.num_vec_register_writes                  0                       # number of times the vector registers were written
system.cpu.num_cc_register_reads             12490268                       # number of times the CC registers were read
system.cpu.num_cc_register_writes             7733621                       # number of times the CC registers were written
system.cpu.num_mem_refs                       8283503                       # number of memory refs
system.cpu.num_load_insts                     5041685                       # Number of load instructions
system.cpu.num_store_insts                    3241818                       # Number of store instructions
system.cpu.num_idle_cycles                          0                       # Number of idle cycles
system.cpu.num_busy_cycles                  540973524                       # Number of busy cycles
system.cpu.not_idle_fraction                        1                       # Percentage of non-idle cycles
system.cpu.idle_fraction                            0                       # Percentage of idle cycles
system.cpu.Branches                           3680439                       # Number of branches fetched
system.cpu.op_class::No_OpClass                   284      0.00%      0.00% # Class of executed instruction
system.cpu.op_class::IntAlu                  21121905     71.83%     71.83% # Class of executed instruction
system.cpu.op_class::IntMult                       42      0.00%     71.83% # Class of executed instruction
system.cpu.op_class::IntDiv                         7      0.00%     71.83% # Class of executed instruction
system.cpu.op_class::FloatAdd                       2      0.00%     71.83% # Class of executed instruction
system.cpu.op_class::FloatCmp                       0      0.00%     71.83% # Class of executed instruction
system.cpu.op_class::FloatCvt                       0      0.00%     71.83% # Class of executed instruction
system.cpu.op_class::FloatMult                      0      0.00%     71.83% # Class of executed instruction
system.cpu.op_class::FloatMultAcc                   0      0.00%     71.83% # Class of executed instruction
system.cpu.op_class::FloatDiv                       0      0.00%     71.83% # Class of executed instruction
system.cpu.op_class::FloatMisc                      0      0.00%     71.83% # Class of executed instruction
system.cpu.op_class::FloatSqrt                      0      0.00%     71.83% # Class of executed instruction
system.cpu.op_class::SimdAdd                        0      0.00%     71.83% # Class of executed instruction
system.cpu.op_class::SimdAddAcc                     0      0.00%     71.83% # Class of executed instruction
system.cpu.op_class::SimdAlu                        0      0.00%     71.83% # Class of executed instruction
system.cpu.op_class::SimdCmp                        0      0.00%     71.83% # Class of executed instruction
system.cpu.op_class::SimdCvt                        0      0.00%     71.83% # Class of executed instruction
system.cpu.op_class::SimdMisc                       0      0.00%     71.83% # Class of executed instruction
system.cpu.op_class::SimdMult                       0      0.00%     71.83% # Class of executed instruction
system.cpu.op_class::SimdMultAcc                    0      0.00%     71.83% # Class of executed instruction
system.cpu.op_class::SimdShift                      0      0.00%     71.83% # Class of executed instruction
system.cpu.op_class::SimdShiftAcc                   0      0.00%     71.83% # Class of executed instruction
system.cpu.op_class::SimdSqrt                       0      0.00%     71.83% # Class of executed instruction
system.cpu.op_class::SimdFloatAdd                   0      0.00%     71.83% # Class of executed instruction
system.cpu.op_class::SimdFloatAlu                   0      0.00%     71.83% # Class of executed instruction
system.cpu.op_class::SimdFloatCmp                   0      0.00%     71.83% # Class of executed instruction
system.cpu.op_class::SimdFloatCvt                   0      0.00%     71.83% # Class of executed instruction
system.cpu.op_class::SimdFloatDiv                   0      0.00%     71.83% # Class of executed instruction
system.cpu.op_class::SimdFloatMisc                  0      0.00%     71.83% # Class of executed instruction
system.cpu.op_class::SimdFloatMult                  0      0.00%     71.83% # Class of executed instruction
system.cpu.op_class::SimdFloatMultAcc               0      0.00%     71.83% # Class of executed instruction
system.cpu.op_class::SimdFloatSqrt                  0      0.00%     71.83% # Class of executed instruction
system.cpu.op_class::MemRead                  5041683     17.15%     88.98% # Class of executed instruction
system.cpu.op_class::MemWrite                 3241816     11.02%    100.00% # Class of executed instruction
system.cpu.op_class::FloatMemRead                   2      0.00%    100.00% # Class of executed instruction
system.cpu.op_class::FloatMemWrite                  2      0.00%    100.00% # Class of executed instruction
system.cpu.op_class::IprAccess                      0      0.00%    100.00% # Class of executed instruction
system.cpu.op_class::InstPrefetch                   0      0.00%    100.00% # Class of executed instruction
system.cpu.op_class::total                   29405743                       # Class of executed instruction
system.cpu.dcache.tags.pwrStateResidencyTicks::UNDEFINED 270486762000                       # Cumulative time (in ticks) in various power states
system.cpu.dcache.tags.tagsinuse           138.955121                       # Cycle average of tags in use
system.cpu.dcache.tags.total_refs             8283507                       # Total number of references to valid blocks.
system.cpu.dcache.tags.sampled_refs               150                       # Sample count of references to valid blocks.
system.cpu.dcache.tags.avg_refs          55223.380000                       # Average number of references to valid blocks.
system.cpu.dcache.tags.warmup_cycle            759000                       # Cycle when the warmup percentage was hit.
system.cpu.dcache.tags.occ_blocks::cpu.data   138.955121                       # Average occupied blocks per requestor
system.cpu.dcache.tags.occ_percent::cpu.data     0.271397                       # Average percentage of cache occupancy
system.cpu.dcache.tags.occ_percent::total     0.271397                       # Average percentage of cache occupancy
system.cpu.dcache.tags.occ_task_id_blocks::1024          149                       # Occupied blocks per task id
system.cpu.dcache.tags.age_task_id_blocks_1024::0            9                       # Occupied blocks per task id
system.cpu.dcache.tags.age_task_id_blocks_1024::1            1                       # Occupied blocks per task id
system.cpu.dcache.tags.age_task_id_blocks_1024::4          139                       # Occupied blocks per task id
system.cpu.dcache.tags.occ_task_id_percent::1024     0.291016                       # Percentage of cache occupancy per task id
system.cpu.dcache.tags.tag_accesses          33134178                       # Number of tag accesses
system.cpu.dcache.tags.data_accesses         33134178                       # Number of data accesses
system.cpu.dcache.pwrStateResidencyTicks::UNDEFINED 270486762000                       # Cumulative time (in ticks) in various power states
system.cpu.dcache.ReadReq_hits::cpu.data      5041610                       # number of ReadReq hits
system.cpu.dcache.ReadReq_hits::total         5041610                       # number of ReadReq hits
system.cpu.dcache.WriteReq_hits::cpu.data      1080786                       # number of WriteReq hits
system.cpu.dcache.WriteReq_hits::total        1080786                       # number of WriteReq hits
system.cpu.dcache.demand_hits::cpu.data       6122396                       # number of demand (read+write) hits
system.cpu.dcache.demand_hits::total          6122396                       # number of demand (read+write) hits
system.cpu.dcache.overall_hits::cpu.data      6122396                       # number of overall hits
system.cpu.dcache.overall_hits::total         6122396                       # number of overall hits
system.cpu.dcache.ReadReq_misses::cpu.data           77                       # number of ReadReq misses
system.cpu.dcache.ReadReq_misses::total            77                       # number of ReadReq misses
system.cpu.dcache.WriteReq_misses::cpu.data      2161034                       # number of WriteReq misses
system.cpu.dcache.WriteReq_misses::total      2161034                       # number of WriteReq misses
system.cpu.dcache.demand_misses::cpu.data      2161111                       # number of demand (read+write) misses
system.cpu.dcache.demand_misses::total        2161111                       # number of demand (read+write) misses
system.cpu.dcache.overall_misses::cpu.data      2161111                       # number of overall misses
system.cpu.dcache.overall_misses::total       2161111                       # number of overall misses
system.cpu.dcache.ReadReq_miss_latency::cpu.data     28179000                       # number of ReadReq miss cycles
system.cpu.dcache.ReadReq_miss_latency::total     28179000                       # number of ReadReq miss cycles
system.cpu.dcache.WriteReq_miss_latency::cpu.data 247766670000                       # number of WriteReq miss cycles
system.cpu.dcache.WriteReq_miss_latency::total 247766670000                       # number of WriteReq miss cycles
system.cpu.dcache.demand_miss_latency::cpu.data 247794849000                       # number of demand (read+write) miss cycles
system.cpu.dcache.demand_miss_latency::total 247794849000                       # number of demand (read+write) miss cycles
system.cpu.dcache.overall_miss_latency::cpu.data 247794849000                       # number of overall miss cycles
system.cpu.dcache.overall_miss_latency::total 247794849000                       # number of overall miss cycles
system.cpu.dcache.ReadReq_accesses::cpu.data      5041687                       # number of ReadReq accesses(hits+misses)
system.cpu.dcache.ReadReq_accesses::total      5041687                       # number of ReadReq accesses(hits+misses)
system.cpu.dcache.WriteReq_accesses::cpu.data      3241820                       # number of WriteReq accesses(hits+misses)
system.cpu.dcache.WriteReq_accesses::total      3241820                       # number of WriteReq accesses(hits+misses)
system.cpu.dcache.demand_accesses::cpu.data      8283507                       # number of demand (read+write) accesses
system.cpu.dcache.demand_accesses::total      8283507                       # number of demand (read+write) accesses
system.cpu.dcache.overall_accesses::cpu.data      8283507                       # number of overall (read+write) accesses
system.cpu.dcache.overall_accesses::total      8283507                       # number of overall (read+write) accesses
system.cpu.dcache.ReadReq_miss_rate::cpu.data     0.000015                       # miss rate for ReadReq accesses
system.cpu.dcache.ReadReq_miss_rate::total     0.000015                       # miss rate for ReadReq accesses
system.cpu.dcache.WriteReq_miss_rate::cpu.data     0.666611                       # miss rate for WriteReq accesses
system.cpu.dcache.WriteReq_miss_rate::total     0.666611                       # miss rate for WriteReq accesses
system.cpu.dcache.demand_miss_rate::cpu.data     0.260893                       # miss rate for demand accesses
system.cpu.dcache.demand_miss_rate::total     0.260893                       # miss rate for demand accesses
system.cpu.dcache.overall_miss_rate::cpu.data     0.260893                       # miss rate for overall accesses
system.cpu.dcache.overall_miss_rate::total     0.260893                       # miss rate for overall accesses
system.cpu.dcache.ReadReq_avg_miss_latency::cpu.data 365961.038961                       # average ReadReq miss latency
system.cpu.dcache.ReadReq_avg_miss_latency::total 365961.038961                       # average ReadReq miss latency
system.cpu.dcache.WriteReq_avg_miss_latency::cpu.data 114651.907374                       # average WriteReq miss latency
system.cpu.dcache.WriteReq_avg_miss_latency::total 114651.907374                       # average WriteReq miss latency
system.cpu.dcache.demand_avg_miss_latency::cpu.data 114660.861474                       # average overall miss latency
system.cpu.dcache.demand_avg_miss_latency::total 114660.861474                       # average overall miss latency
system.cpu.dcache.overall_avg_miss_latency::cpu.data 114660.861474                       # average overall miss latency
system.cpu.dcache.overall_avg_miss_latency::total 114660.861474                       # average overall miss latency
system.cpu.dcache.blocked_cycles::no_mshrs            0                       # number of cycles access was blocked
system.cpu.dcache.blocked_cycles::no_targets            0                       # number of cycles access was blocked
system.cpu.dcache.blocked::no_mshrs                 0                       # number of cycles access was blocked
system.cpu.dcache.blocked::no_targets               0                       # number of cycles access was blocked
system.cpu.dcache.avg_blocked_cycles::no_mshrs          nan                       # average number of cycles each access was blocked
system.cpu.dcache.avg_blocked_cycles::no_targets          nan                       # average number of cycles each access was blocked
system.cpu.dcache.ReadReq_mshr_misses::cpu.data           77                       # number of ReadReq MSHR misses
system.cpu.dcache.ReadReq_mshr_misses::total           77                       # number of ReadReq MSHR misses
system.cpu.dcache.WriteReq_mshr_misses::cpu.data      2161034                       # number of WriteReq MSHR misses
system.cpu.dcache.WriteReq_mshr_misses::total      2161034                       # number of WriteReq MSHR misses
system.cpu.dcache.demand_mshr_misses::cpu.data      2161111                       # number of demand (read+write) MSHR misses
system.cpu.dcache.demand_mshr_misses::total      2161111                       # number of demand (read+write) MSHR misses
system.cpu.dcache.overall_mshr_misses::cpu.data      2161111                       # number of overall MSHR misses
system.cpu.dcache.overall_mshr_misses::total      2161111                       # number of overall MSHR misses
system.cpu.dcache.ReadReq_mshr_miss_latency::cpu.data     28102000                       # number of ReadReq MSHR miss cycles
system.cpu.dcache.ReadReq_mshr_miss_latency::total     28102000                       # number of ReadReq MSHR miss cycles
system.cpu.dcache.WriteReq_mshr_miss_latency::cpu.data 245605636000                       # number of WriteReq MSHR miss cycles
system.cpu.dcache.WriteReq_mshr_miss_latency::total 245605636000                       # number of WriteReq MSHR miss cycles
system.cpu.dcache.demand_mshr_miss_latency::cpu.data 245633738000                       # number of demand (read+write) MSHR miss cycles
system.cpu.dcache.demand_mshr_miss_latency::total 245633738000                       # number of demand (read+write) MSHR miss cycles
system.cpu.dcache.overall_mshr_miss_latency::cpu.data 245633738000                       # number of overall MSHR miss cycles
system.cpu.dcache.overall_mshr_miss_latency::total 245633738000                       # number of overall MSHR miss cycles
system.cpu.dcache.ReadReq_mshr_miss_rate::cpu.data     0.000015                       # mshr miss rate for ReadReq accesses
system.cpu.dcache.ReadReq_mshr_miss_rate::total     0.000015                       # mshr miss rate for ReadReq accesses
system.cpu.dcache.WriteReq_mshr_miss_rate::cpu.data     0.666611                       # mshr miss rate for WriteReq accesses
system.cpu.dcache.WriteReq_mshr_miss_rate::total     0.666611                       # mshr miss rate for WriteReq accesses
system.cpu.dcache.demand_mshr_miss_rate::cpu.data     0.260893                       # mshr miss rate for demand accesses
system.cpu.dcache.demand_mshr_miss_rate::total     0.260893                       # mshr miss rate for demand accesses
system.cpu.dcache.overall_mshr_miss_rate::cpu.data     0.260893                       # mshr miss rate for overall accesses
system.cpu.dcache.overall_mshr_miss_rate::total     0.260893                       # mshr miss rate for overall accesses
system.cpu.dcache.ReadReq_avg_mshr_miss_latency::cpu.data 364961.038961                       # average ReadReq mshr miss latency
system.cpu.dcache.ReadReq_avg_mshr_miss_latency::total 364961.038961                       # average ReadReq mshr miss latency
system.cpu.dcache.WriteReq_avg_mshr_miss_latency::cpu.data 113651.907374                       # average WriteReq mshr miss latency
system.cpu.dcache.WriteReq_avg_mshr_miss_latency::total 113651.907374                       # average WriteReq mshr miss latency
system.cpu.dcache.demand_avg_mshr_miss_latency::cpu.data 113660.861474                       # average overall mshr miss latency
system.cpu.dcache.demand_avg_mshr_miss_latency::total 113660.861474                       # average overall mshr miss latency
system.cpu.dcache.overall_avg_mshr_miss_latency::cpu.data 113660.861474                       # average overall mshr miss latency
system.cpu.dcache.overall_avg_mshr_miss_latency::total 113660.861474                       # average overall mshr miss latency
system.cpu.dcache.replacements                      1                       # number of replacements
system.cpu.dtb_walker_cache.tags.pwrStateResidencyTicks::UNDEFINED 270486762000                       # Cumulative time (in ticks) in various power states
system.cpu.dtb_walker_cache.tags.tagsinuse            0                       # Cycle average of tags in use
system.cpu.dtb_walker_cache.tags.total_refs            0                       # Total number of references to valid blocks.
system.cpu.dtb_walker_cache.tags.sampled_refs            0                       # Sample count of references to valid blocks.
system.cpu.dtb_walker_cache.tags.avg_refs          nan                       # Average number of references to valid blocks.
system.cpu.dtb_walker_cache.tags.warmup_cycle            0                       # Cycle when the warmup percentage was hit.
system.cpu.dtb_walker_cache.tags.tag_accesses            0                       # Number of tag accesses
system.cpu.dtb_walker_cache.tags.data_accesses            0                       # Number of data accesses
system.cpu.dtb_walker_cache.pwrStateResidencyTicks::UNDEFINED 270486762000                       # Cumulative time (in ticks) in various power states
system.cpu.dtb_walker_cache.blocked_cycles::no_mshrs            0                       # number of cycles access was blocked
system.cpu.dtb_walker_cache.blocked_cycles::no_targets            0                       # number of cycles access was blocked
system.cpu.dtb_walker_cache.blocked::no_mshrs            0                       # number of cycles access was blocked
system.cpu.dtb_walker_cache.blocked::no_targets            0                       # number of cycles access was blocked
system.cpu.dtb_walker_cache.avg_blocked_cycles::no_mshrs          nan                       # average number of cycles each access was blocked
system.cpu.dtb_walker_cache.avg_blocked_cycles::no_targets          nan                       # average number of cycles each access was blocked
system.cpu.dtb_walker_cache.replacements            0                       # number of replacements
system.cpu.icache.tags.pwrStateResidencyTicks::UNDEFINED 270486762000                       # Cumulative time (in ticks) in various power states
system.cpu.icache.tags.tagsinuse           264.901250                       # Cycle average of tags in use
system.cpu.icache.tags.total_refs            16462951                       # Total number of references to valid blocks.
system.cpu.icache.tags.sampled_refs               322                       # Sample count of references to valid blocks.
system.cpu.icache.tags.avg_refs          51127.177019                       # Average number of references to valid blocks.
system.cpu.icache.tags.warmup_cycle            439000                       # Cycle when the warmup percentage was hit.
system.cpu.icache.tags.occ_blocks::cpu.inst   264.901250                       # Average occupied blocks per requestor
system.cpu.icache.tags.occ_percent::cpu.inst     0.517385                       # Average percentage of cache occupancy
system.cpu.icache.tags.occ_percent::total     0.517385                       # Average percentage of cache occupancy
system.cpu.icache.tags.occ_task_id_blocks::1024          292                       # Occupied blocks per task id
system.cpu.icache.tags.age_task_id_blocks_1024::0           31                       # Occupied blocks per task id
system.cpu.icache.tags.age_task_id_blocks_1024::1           10                       # Occupied blocks per task id
system.cpu.icache.tags.age_task_id_blocks_1024::4          251                       # Occupied blocks per task id
system.cpu.icache.tags.occ_task_id_percent::1024     0.570312                       # Percentage of cache occupancy per task id
system.cpu.icache.tags.tag_accesses          65852126                       # Number of tag accesses
system.cpu.icache.tags.data_accesses         65852126                       # Number of data accesses
system.cpu.icache.pwrStateResidencyTicks::UNDEFINED 270486762000                       # Cumulative time (in ticks) in various power states
system.cpu.icache.ReadReq_hits::cpu.inst     16462629                       # number of ReadReq hits
system.cpu.icache.ReadReq_hits::total        16462629                       # number of ReadReq hits
system.cpu.icache.demand_hits::cpu.inst      16462629                       # number of demand (read+write) hits
system.cpu.icache.demand_hits::total         16462629                       # number of demand (read+write) hits
system.cpu.icache.overall_hits::cpu.inst     16462629                       # number of overall hits
system.cpu.icache.overall_hits::total        16462629                       # number of overall hits
system.cpu.icache.ReadReq_misses::cpu.inst          322                       # number of ReadReq misses
system.cpu.icache.ReadReq_misses::total           322                       # number of ReadReq misses
system.cpu.icache.demand_misses::cpu.inst          322                       # number of demand (read+write) misses
system.cpu.icache.demand_misses::total            322                       # number of demand (read+write) misses
system.cpu.icache.overall_misses::cpu.inst          322                       # number of overall misses
system.cpu.icache.overall_misses::total           322                       # number of overall misses
system.cpu.icache.ReadReq_miss_latency::cpu.inst    106892000                       # number of ReadReq miss cycles
system.cpu.icache.ReadReq_miss_latency::total    106892000                       # number of ReadReq miss cycles
system.cpu.icache.demand_miss_latency::cpu.inst    106892000                       # number of demand (read+write) miss cycles
system.cpu.icache.demand_miss_latency::total    106892000                       # number of demand (read+write) miss cycles
system.cpu.icache.overall_miss_latency::cpu.inst    106892000                       # number of overall miss cycles
system.cpu.icache.overall_miss_latency::total    106892000                       # number of overall miss cycles
system.cpu.icache.ReadReq_accesses::cpu.inst     16462951                       # number of ReadReq accesses(hits+misses)
system.cpu.icache.ReadReq_accesses::total     16462951                       # number of ReadReq accesses(hits+misses)
system.cpu.icache.demand_accesses::cpu.inst     16462951                       # number of demand (read+write) accesses
system.cpu.icache.demand_accesses::total     16462951                       # number of demand (read+write) accesses
system.cpu.icache.overall_accesses::cpu.inst     16462951                       # number of overall (read+write) accesses
system.cpu.icache.overall_accesses::total     16462951                       # number of overall (read+write) accesses
system.cpu.icache.ReadReq_miss_rate::cpu.inst     0.000020                       # miss rate for ReadReq accesses
system.cpu.icache.ReadReq_miss_rate::total     0.000020                       # miss rate for ReadReq accesses
system.cpu.icache.demand_miss_rate::cpu.inst     0.000020                       # miss rate for demand accesses
system.cpu.icache.demand_miss_rate::total     0.000020                       # miss rate for demand accesses
system.cpu.icache.overall_miss_rate::cpu.inst     0.000020                       # miss rate for overall accesses
system.cpu.icache.overall_miss_rate::total     0.000020                       # miss rate for overall accesses
system.cpu.icache.ReadReq_avg_miss_latency::cpu.inst 331962.732919                       # average ReadReq miss latency
system.cpu.icache.ReadReq_avg_miss_latency::total 331962.732919                       # average ReadReq miss latency
system.cpu.icache.demand_avg_miss_latency::cpu.inst 331962.732919                       # average overall miss latency
system.cpu.icache.demand_avg_miss_latency::total 331962.732919                       # average overall miss latency
system.cpu.icache.overall_avg_miss_latency::cpu.inst 331962.732919                       # average overall miss latency
system.cpu.icache.overall_avg_miss_latency::total 331962.732919                       # average overall miss latency
system.cpu.icache.blocked_cycles::no_mshrs            0                       # number of cycles access was blocked
system.cpu.icache.blocked_cycles::no_targets            0                       # number of cycles access was blocked
system.cpu.icache.blocked::no_mshrs                 0                       # number of cycles access was blocked
system.cpu.icache.blocked::no_targets               0                       # number of cycles access was blocked
system.cpu.icache.avg_blocked_cycles::no_mshrs          nan                       # average number of cycles each access was blocked
system.cpu.icache.avg_blocked_cycles::no_targets          nan                       # average number of cycles each access was blocked
system.cpu.icache.writebacks::writebacks           30                       # number of writebacks
system.cpu.icache.writebacks::total                30                       # number of writebacks
system.cpu.icache.ReadReq_mshr_misses::cpu.inst          322                       # number of ReadReq MSHR misses
system.cpu.icache.ReadReq_mshr_misses::total          322                       # number of ReadReq MSHR misses
system.cpu.icache.demand_mshr_misses::cpu.inst          322                       # number of demand (read+write) MSHR misses
system.cpu.icache.demand_mshr_misses::total          322                       # number of demand (read+write) MSHR misses
system.cpu.icache.overall_mshr_misses::cpu.inst          322                       # number of overall MSHR misses
system.cpu.icache.overall_mshr_misses::total          322                       # number of overall MSHR misses
system.cpu.icache.ReadReq_mshr_miss_latency::cpu.inst    106570000                       # number of ReadReq MSHR miss cycles
system.cpu.icache.ReadReq_mshr_miss_latency::total    106570000                       # number of ReadReq MSHR miss cycles
system.cpu.icache.demand_mshr_miss_latency::cpu.inst    106570000                       # number of demand (read+write) MSHR miss cycles
system.cpu.icache.demand_mshr_miss_latency::total    106570000                       # number of demand (read+write) MSHR miss cycles
system.cpu.icache.overall_mshr_miss_latency::cpu.inst    106570000                       # number of overall MSHR miss cycles
system.cpu.icache.overall_mshr_miss_latency::total    106570000                       # number of overall MSHR miss cycles
system.cpu.icache.ReadReq_mshr_miss_rate::cpu.inst     0.000020                       # mshr miss rate for ReadReq accesses
system.cpu.icache.ReadReq_mshr_miss_rate::total     0.000020                       # mshr miss rate for ReadReq accesses
system.cpu.icache.demand_mshr_miss_rate::cpu.inst     0.000020                       # mshr miss rate for demand accesses
system.cpu.icache.demand_mshr_miss_rate::total     0.000020                       # mshr miss rate for demand accesses
system.cpu.icache.overall_mshr_miss_rate::cpu.inst     0.000020                       # mshr miss rate for overall accesses
system.cpu.icache.overall_mshr_miss_rate::total     0.000020                       # mshr miss rate for overall accesses
system.cpu.icache.ReadReq_avg_mshr_miss_latency::cpu.inst 330962.732919                       # average ReadReq mshr miss latency
system.cpu.icache.ReadReq_avg_mshr_miss_latency::total 330962.732919                       # average ReadReq mshr miss latency
system.cpu.icache.demand_avg_mshr_miss_latency::cpu.inst 330962.732919                       # average overall mshr miss latency
system.cpu.icache.demand_avg_mshr_miss_latency::total 330962.732919                       # average overall mshr miss latency
system.cpu.icache.overall_avg_mshr_miss_latency::cpu.inst 330962.732919                       # average overall mshr miss latency
system.cpu.icache.overall_avg_mshr_miss_latency::total 330962.732919                       # average overall mshr miss latency
system.cpu.icache.replacements                     30                       # number of replacements
system.cpu.itb_walker_cache.tags.pwrStateResidencyTicks::UNDEFINED 270486762000                       # Cumulative time (in ticks) in various power states
system.cpu.itb_walker_cache.tags.tagsinuse            0                       # Cycle average of tags in use
system.cpu.itb_walker_cache.tags.total_refs            0                       # Total number of references to valid blocks.
system.cpu.itb_walker_cache.tags.sampled_refs            0                       # Sample count of references to valid blocks.
system.cpu.itb_walker_cache.tags.avg_refs          nan                       # Average number of references to valid blocks.
system.cpu.itb_walker_cache.tags.warmup_cycle            0                       # Cycle when the warmup percentage was hit.
system.cpu.itb_walker_cache.tags.tag_accesses            0                       # Number of tag accesses
system.cpu.itb_walker_cache.tags.data_accesses            0                       # Number of data accesses
system.cpu.itb_walker_cache.pwrStateResidencyTicks::UNDEFINED 270486762000                       # Cumulative time (in ticks) in various power states
system.cpu.itb_walker_cache.blocked_cycles::no_mshrs            0                       # number of cycles access was blocked
system.cpu.itb_walker_cache.blocked_cycles::no_targets            0                       # number of cycles access was blocked
system.cpu.itb_walker_cache.blocked::no_mshrs            0                       # number of cycles access was blocked
system.cpu.itb_walker_cache.blocked::no_targets            0                       # number of cycles access was blocked
system.cpu.itb_walker_cache.avg_blocked_cycles::no_mshrs          nan                       # average number of cycles each access was blocked
system.cpu.itb_walker_cache.avg_blocked_cycles::no_targets          nan                       # average number of cycles each access was blocked
system.cpu.itb_walker_cache.replacements            0                       # number of replacements
system.l2.tags.pwrStateResidencyTicks::UNDEFINED 270486762000                       # Cumulative time (in ticks) in various power states
system.l2.tags.tagsinuse                   418.848500                       # Cycle average of tags in use
system.l2.tags.total_refs                     4322542                       # Total number of references to valid blocks.
system.l2.tags.sampled_refs                       470                       # Sample count of references to valid blocks.
system.l2.tags.avg_refs                   9196.897872                       # Average number of references to valid blocks.
system.l2.tags.warmup_cycle                    428500                       # Cycle when the warmup percentage was hit.
system.l2.tags.occ_blocks::cpu.inst        278.893912                       # Average occupied blocks per requestor
system.l2.tags.occ_blocks::cpu.data        139.954588                       # Average occupied blocks per requestor
system.l2.tags.occ_percent::cpu.inst         0.136179                       # Average percentage of cache occupancy
system.l2.tags.occ_percent::cpu.data         0.068337                       # Average percentage of cache occupancy
system.l2.tags.occ_percent::total            0.204516                       # Average percentage of cache occupancy
system.l2.tags.occ_task_id_blocks::1024           470                       # Occupied blocks per task id
system.l2.tags.age_task_id_blocks_1024::0           40                       # Occupied blocks per task id
system.l2.tags.age_task_id_blocks_1024::1           11                       # Occupied blocks per task id
system.l2.tags.age_task_id_blocks_1024::4          419                       # Occupied blocks per task id
system.l2.tags.occ_task_id_percent::1024     0.229492                       # Percentage of cache occupancy per task id
system.l2.tags.tag_accesses                  17290638                       # Number of tag accesses
system.l2.tags.data_accesses                 17290638                       # Number of data accesses
system.l2.pwrStateResidencyTicks::UNDEFINED 270486762000                       # Cumulative time (in ticks) in various power states
system.l2.WritebackClean_hits::writebacks           30                       # number of WritebackClean hits
system.l2.WritebackClean_hits::total               30                       # number of WritebackClean hits
system.l2.WriteClean_hits::writebacks         2161078                       # number of WriteClean hits
system.l2.WriteClean_hits::total              2161078                       # number of WriteClean hits
system.l2.UpgradeReq_hits::cpu.data           1080508                       # number of UpgradeReq hits
system.l2.UpgradeReq_hits::total              1080508                       # number of UpgradeReq hits
system.l2.ReadCleanReq_hits::cpu.inst               2                       # number of ReadCleanReq hits
system.l2.ReadCleanReq_hits::total                  2                       # number of ReadCleanReq hits
system.l2.demand_hits::cpu.inst                     2                       # number of demand (read+write) hits
system.l2.demand_hits::total                        2                       # number of demand (read+write) hits
system.l2.overall_hits::cpu.inst                    2                       # number of overall hits
system.l2.overall_hits::total                       2                       # number of overall hits
system.l2.UpgradeReq_misses::cpu.data         1080453                       # number of UpgradeReq misses
system.l2.UpgradeReq_misses::total            1080453                       # number of UpgradeReq misses
system.l2.ReadExReq_misses::cpu.data               73                       # number of ReadExReq misses
system.l2.ReadExReq_misses::total                  73                       # number of ReadExReq misses
system.l2.ReadCleanReq_misses::cpu.inst           320                       # number of ReadCleanReq misses
system.l2.ReadCleanReq_misses::total              320                       # number of ReadCleanReq misses
system.l2.ReadSharedReq_misses::cpu.data           77                       # number of ReadSharedReq misses
system.l2.ReadSharedReq_misses::total              77                       # number of ReadSharedReq misses
system.l2.demand_misses::cpu.inst                 320                       # number of demand (read+write) misses
system.l2.demand_misses::cpu.data                 150                       # number of demand (read+write) misses
system.l2.demand_misses::total                    470                       # number of demand (read+write) misses
system.l2.overall_misses::cpu.inst                320                       # number of overall misses
system.l2.overall_misses::cpu.data                150                       # number of overall misses
system.l2.overall_misses::total                   470                       # number of overall misses
system.l2.UpgradeReq_miss_latency::cpu.data 230782352000                       # number of UpgradeReq miss cycles
system.l2.UpgradeReq_miss_latency::total 230782352000                       # number of UpgradeReq miss cycles
system.l2.ReadExReq_miss_latency::cpu.data     56323000                       # number of ReadExReq miss cycles
system.l2.ReadExReq_miss_latency::total      56323000                       # number of ReadExReq miss cycles
system.l2.ReadCleanReq_miss_latency::cpu.inst    106052000                       # number of ReadCleanReq miss cycles
system.l2.ReadCleanReq_miss_latency::total    106052000                       # number of ReadCleanReq miss cycles
system.l2.ReadSharedReq_miss_latency::cpu.data     27986000                       # number of ReadSharedReq miss cycles
system.l2.ReadSharedReq_miss_latency::total     27986000                       # number of ReadSharedReq miss cycles
system.l2.demand_miss_latency::cpu.inst     106052000                       # number of demand (read+write) miss cycles
system.l2.demand_miss_latency::cpu.data      84309000                       # number of demand (read+write) miss cycles
system.l2.demand_miss_latency::total        190361000                       # number of demand (read+write) miss cycles
system.l2.overall_miss_latency::cpu.inst    106052000                       # number of overall miss cycles
system.l2.overall_miss_latency::cpu.data     84309000                       # number of overall miss cycles
system.l2.overall_miss_latency::total       190361000                       # number of overall miss cycles
system.l2.WritebackClean_accesses::writebacks           30                       # number of WritebackClean accesses(hits+misses)
system.l2.WritebackClean_accesses::total           30                       # number of WritebackClean accesses(hits+misses)
system.l2.WriteClean_accesses::writebacks      2161078                       # number of WriteClean accesses(hits+misses)
system.l2.WriteClean_accesses::total          2161078                       # number of WriteClean accesses(hits+misses)
system.l2.UpgradeReq_accesses::cpu.data       2160961                       # number of UpgradeReq accesses(hits+misses)
system.l2.UpgradeReq_accesses::total          2160961                       # number of UpgradeReq accesses(hits+misses)
system.l2.ReadExReq_accesses::cpu.data             73                       # number of ReadExReq accesses(hits+misses)
system.l2.ReadExReq_accesses::total                73                       # number of ReadExReq accesses(hits+misses)
system.l2.ReadCleanReq_accesses::cpu.inst          322                       # number of ReadCleanReq accesses(hits+misses)
system.l2.ReadCleanReq_accesses::total            322                       # number of ReadCleanReq accesses(hits+misses)
system.l2.ReadSharedReq_accesses::cpu.data           77                       # number of ReadSharedReq accesses(hits+misses)
system.l2.ReadSharedReq_accesses::total            77                       # number of ReadSharedReq accesses(hits+misses)
system.l2.demand_accesses::cpu.inst               322                       # number of demand (read+write) accesses
system.l2.demand_accesses::cpu.data               150                       # number of demand (read+write) accesses
system.l2.demand_accesses::total                  472                       # number of demand (read+write) accesses
system.l2.overall_accesses::cpu.inst              322                       # number of overall (read+write) accesses
system.l2.overall_accesses::cpu.data              150                       # number of overall (read+write) accesses
system.l2.overall_accesses::total                 472                       # number of overall (read+write) accesses
system.l2.UpgradeReq_miss_rate::cpu.data     0.499987                       # miss rate for UpgradeReq accesses
system.l2.UpgradeReq_miss_rate::total        0.499987                       # miss rate for UpgradeReq accesses
system.l2.ReadExReq_miss_rate::cpu.data             1                       # miss rate for ReadExReq accesses
system.l2.ReadExReq_miss_rate::total                1                       # miss rate for ReadExReq accesses
system.l2.ReadCleanReq_miss_rate::cpu.inst     0.993789                       # miss rate for ReadCleanReq accesses
system.l2.ReadCleanReq_miss_rate::total      0.993789                       # miss rate for ReadCleanReq accesses
system.l2.ReadSharedReq_miss_rate::cpu.data            1                       # miss rate for ReadSharedReq accesses
system.l2.ReadSharedReq_miss_rate::total            1                       # miss rate for ReadSharedReq accesses
system.l2.demand_miss_rate::cpu.inst         0.993789                       # miss rate for demand accesses
system.l2.demand_miss_rate::cpu.data                1                       # miss rate for demand accesses
system.l2.demand_miss_rate::total            0.995763                       # miss rate for demand accesses
system.l2.overall_miss_rate::cpu.inst        0.993789                       # miss rate for overall accesses
system.l2.overall_miss_rate::cpu.data               1                       # miss rate for overall accesses
system.l2.overall_miss_rate::total           0.995763                       # miss rate for overall accesses
system.l2.UpgradeReq_avg_miss_latency::cpu.data 213597.770565                       # average UpgradeReq miss latency
system.l2.UpgradeReq_avg_miss_latency::total 213597.770565                       # average UpgradeReq miss latency
system.l2.ReadExReq_avg_miss_latency::cpu.data 771547.945205                       # average ReadExReq miss latency
system.l2.ReadExReq_avg_miss_latency::total 771547.945205                       # average ReadExReq miss latency
system.l2.ReadCleanReq_avg_miss_latency::cpu.inst 331412.500000                       # average ReadCleanReq miss latency
system.l2.ReadCleanReq_avg_miss_latency::total 331412.500000                       # average ReadCleanReq miss latency
system.l2.ReadSharedReq_avg_miss_latency::cpu.data 363454.545455                       # average ReadSharedReq miss latency
system.l2.ReadSharedReq_avg_miss_latency::total 363454.545455                       # average ReadSharedReq miss latency
system.l2.demand_avg_miss_latency::cpu.inst 331412.500000                       # average overall miss latency
system.l2.demand_avg_miss_latency::cpu.data       562060                       # average overall miss latency
system.l2.demand_avg_miss_latency::total 405023.404255                       # average overall miss latency
system.l2.overall_avg_miss_latency::cpu.inst 331412.500000                       # average overall miss latency
system.l2.overall_avg_miss_latency::cpu.data       562060                       # average overall miss latency
system.l2.overall_avg_miss_latency::total 405023.404255                       # average overall miss latency
system.l2.blocked_cycles::no_mshrs                  0                       # number of cycles access was blocked
system.l2.blocked_cycles::no_targets                0                       # number of cycles access was blocked
system.l2.blocked::no_mshrs                         0                       # number of cycles access was blocked
system.l2.blocked::no_targets                       0                       # number of cycles access was blocked
system.l2.avg_blocked_cycles::no_mshrs            nan                       # average number of cycles each access was blocked
system.l2.avg_blocked_cycles::no_targets          nan                       # average number of cycles each access was blocked
system.l2.UpgradeReq_mshr_misses::cpu.data      1080453                       # number of UpgradeReq MSHR misses
system.l2.UpgradeReq_mshr_misses::total       1080453                       # number of UpgradeReq MSHR misses
system.l2.ReadExReq_mshr_misses::cpu.data           73                       # number of ReadExReq MSHR misses
system.l2.ReadExReq_mshr_misses::total             73                       # number of ReadExReq MSHR misses
system.l2.ReadCleanReq_mshr_misses::cpu.inst          320                       # number of ReadCleanReq MSHR misses
system.l2.ReadCleanReq_mshr_misses::total          320                       # number of ReadCleanReq MSHR misses
system.l2.ReadSharedReq_mshr_misses::cpu.data           77                       # number of ReadSharedReq MSHR misses
system.l2.ReadSharedReq_mshr_misses::total           77                       # number of ReadSharedReq MSHR misses
system.l2.demand_mshr_misses::cpu.inst            320                       # number of demand (read+write) MSHR misses
system.l2.demand_mshr_misses::cpu.data            150                       # number of demand (read+write) MSHR misses
system.l2.demand_mshr_misses::total               470                       # number of demand (read+write) MSHR misses
system.l2.overall_mshr_misses::cpu.inst           320                       # number of overall MSHR misses
system.l2.overall_mshr_misses::cpu.data           150                       # number of overall MSHR misses
system.l2.overall_mshr_misses::total              470                       # number of overall MSHR misses
system.l2.UpgradeReq_mshr_miss_latency::cpu.data 219977822000                       # number of UpgradeReq MSHR miss cycles
system.l2.UpgradeReq_mshr_miss_latency::total 219977822000                       # number of UpgradeReq MSHR miss cycles
system.l2.ReadExReq_mshr_miss_latency::cpu.data     55593000                       # number of ReadExReq MSHR miss cycles
system.l2.ReadExReq_mshr_miss_latency::total     55593000                       # number of ReadExReq MSHR miss cycles
system.l2.ReadCleanReq_mshr_miss_latency::cpu.inst    102852000                       # number of ReadCleanReq MSHR miss cycles
system.l2.ReadCleanReq_mshr_miss_latency::total    102852000                       # number of ReadCleanReq MSHR miss cycles
system.l2.ReadSharedReq_mshr_miss_latency::cpu.data     27216000                       # number of ReadSharedReq MSHR miss cycles
system.l2.ReadSharedReq_mshr_miss_latency::total     27216000                       # number of ReadSharedReq MSHR miss cycles
system.l2.demand_mshr_miss_latency::cpu.inst    102852000                       # number of demand (read+write) MSHR miss cycles
system.l2.demand_mshr_miss_latency::cpu.data     82809000                       # number of demand (read+write) MSHR miss cycles
system.l2.demand_mshr_miss_latency::total    185661000                       # number of demand (read+write) MSHR miss cycles
system.l2.overall_mshr_miss_latency::cpu.inst    102852000                       # number of overall MSHR miss cycles
system.l2.overall_mshr_miss_latency::cpu.data     82809000                       # number of overall MSHR miss cycles
system.l2.overall_mshr_miss_latency::total    185661000                       # number of overall MSHR miss cycles
system.l2.UpgradeReq_mshr_miss_rate::cpu.data     0.499987                       # mshr miss rate for UpgradeReq accesses
system.l2.UpgradeReq_mshr_miss_rate::total     0.499987                       # mshr miss rate for UpgradeReq accesses
system.l2.ReadExReq_mshr_miss_rate::cpu.data            1                       # mshr miss rate for ReadExReq accesses
system.l2.ReadExReq_mshr_miss_rate::total            1                       # mshr miss rate for ReadExReq accesses
system.l2.ReadCleanReq_mshr_miss_rate::cpu.inst     0.993789                       # mshr miss rate for ReadCleanReq accesses
system.l2.ReadCleanReq_mshr_miss_rate::total     0.993789                       # mshr miss rate for ReadCleanReq accesses
system.l2.ReadSharedReq_mshr_miss_rate::cpu.data            1                       # mshr miss rate for ReadSharedReq accesses
system.l2.ReadSharedReq_mshr_miss_rate::total            1                       # mshr miss rate for ReadSharedReq accesses
system.l2.demand_mshr_miss_rate::cpu.inst     0.993789                       # mshr miss rate for demand accesses
system.l2.demand_mshr_miss_rate::cpu.data            1                       # mshr miss rate for demand accesses
system.l2.demand_mshr_miss_rate::total       0.995763                       # mshr miss rate for demand accesses
system.l2.overall_mshr_miss_rate::cpu.inst     0.993789                       # mshr miss rate for overall accesses
system.l2.overall_mshr_miss_rate::cpu.data            1                       # mshr miss rate for overall accesses
system.l2.overall_mshr_miss_rate::total      0.995763                       # mshr miss rate for overall accesses
system.l2.UpgradeReq_avg_mshr_miss_latency::cpu.data 203597.770565                       # average UpgradeReq mshr miss latency
system.l2.UpgradeReq_avg_mshr_miss_latency::total 203597.770565                       # average UpgradeReq mshr miss latency
system.l2.ReadExReq_avg_mshr_miss_latency::cpu.data 761547.945205                       # average ReadExReq mshr miss latency
system.l2.ReadExReq_avg_mshr_miss_latency::total 761547.945205                       # average ReadExReq mshr miss latency
system.l2.ReadCleanReq_avg_mshr_miss_latency::cpu.inst 321412.500000                       # average ReadCleanReq mshr miss latency
system.l2.ReadCleanReq_avg_mshr_miss_latency::total 321412.500000                       # average ReadCleanReq mshr miss latency
system.l2.ReadSharedReq_avg_mshr_miss_latency::cpu.data 353454.545455                       # average ReadSharedReq mshr miss latency
system.l2.ReadSharedReq_avg_mshr_miss_latency::total 353454.545455                       # average ReadSharedReq mshr miss latency
system.l2.demand_avg_mshr_miss_latency::cpu.inst 321412.500000                       # average overall mshr miss latency
system.l2.demand_avg_mshr_miss_latency::cpu.data       552060                       # average overall mshr miss latency
system.l2.demand_avg_mshr_miss_latency::total 395023.404255                       # average overall mshr miss latency
system.l2.overall_avg_mshr_miss_latency::cpu.inst 321412.500000                       # average overall mshr miss latency
system.l2.overall_avg_mshr_miss_latency::cpu.data       552060                       # average overall mshr miss latency
system.l2.overall_avg_mshr_miss_latency::total 395023.404255                       # average overall mshr miss latency
system.l2.replacements                              0                       # number of replacements
system.l3.tags.pwrStateResidencyTicks::UNDEFINED 270486762000                       # Cumulative time (in ticks) in various power states
system.l3.tags.tagsinuse                   418.848519                       # Cycle average of tags in use
system.l3.tags.total_refs                     2161433                       # Total number of references to valid blocks.
system.l3.tags.sampled_refs                       470                       # Sample count of references to valid blocks.
system.l3.tags.avg_refs                   4598.793617                       # Average number of references to valid blocks.
system.l3.tags.warmup_cycle                    418000                       # Cycle when the warmup percentage was hit.
system.l3.tags.occ_blocks::cpu.inst        278.893924                       # Average occupied blocks per requestor
system.l3.tags.occ_blocks::cpu.data        139.954594                       # Average occupied blocks per requestor
system.l3.tags.occ_percent::cpu.inst         0.034045                       # Average percentage of cache occupancy
system.l3.tags.occ_percent::cpu.data         0.017084                       # Average percentage of cache occupancy
system.l3.tags.occ_percent::total            0.051129                       # Average percentage of cache occupancy
system.l3.tags.occ_task_id_blocks::1024           470                       # Occupied blocks per task id
system.l3.tags.age_task_id_blocks_1024::0           40                       # Occupied blocks per task id
system.l3.tags.age_task_id_blocks_1024::1           11                       # Occupied blocks per task id
system.l3.tags.age_task_id_blocks_1024::4          419                       # Occupied blocks per task id
system.l3.tags.occ_task_id_percent::1024     0.057373                       # Percentage of cache occupancy per task id
system.l3.tags.tag_accesses                   8646202                       # Number of tag accesses
system.l3.tags.data_accesses                  8646202                       # Number of data accesses
system.l3.pwrStateResidencyTicks::UNDEFINED 270486762000                       # Cumulative time (in ticks) in various power states
system.l3.WriteClean_hits::writebacks         1080510                       # number of WriteClean hits
system.l3.WriteClean_hits::total              1080510                       # number of WriteClean hits
system.l3.UpgradeReq_hits::cpu.data            540253                       # number of UpgradeReq hits
system.l3.UpgradeReq_hits::total               540253                       # number of UpgradeReq hits
system.l3.UpgradeReq_misses::cpu.data          540200                       # number of UpgradeReq misses
system.l3.UpgradeReq_misses::total             540200                       # number of UpgradeReq misses
system.l3.ReadExReq_misses::cpu.data               73                       # number of ReadExReq misses
system.l3.ReadExReq_misses::total                  73                       # number of ReadExReq misses
system.l3.ReadSharedReq_misses::cpu.inst          320                       # number of ReadSharedReq misses
system.l3.ReadSharedReq_misses::cpu.data           77                       # number of ReadSharedReq misses
system.l3.ReadSharedReq_misses::total             397                       # number of ReadSharedReq misses
system.l3.demand_misses::cpu.inst                 320                       # number of demand (read+write) misses
system.l3.demand_misses::cpu.data                 150                       # number of demand (read+write) misses
system.l3.demand_misses::total                    470                       # number of demand (read+write) misses
system.l3.overall_misses::cpu.inst                320                       # number of overall misses
system.l3.overall_misses::cpu.data                150                       # number of overall misses
system.l3.overall_misses::total                   470                       # number of overall misses
system.l3.UpgradeReq_miss_latency::cpu.data 202420182500                       # number of UpgradeReq miss cycles
system.l3.UpgradeReq_miss_latency::total 202420182500                       # number of UpgradeReq miss cycles
system.l3.ReadExReq_miss_latency::cpu.data     54790000                       # number of ReadExReq miss cycles
system.l3.ReadExReq_miss_latency::total      54790000                       # number of ReadExReq miss cycles
system.l3.ReadSharedReq_miss_latency::cpu.inst     99332000                       # number of ReadSharedReq miss cycles
system.l3.ReadSharedReq_miss_latency::cpu.data     26369000                       # number of ReadSharedReq miss cycles
system.l3.ReadSharedReq_miss_latency::total    125701000                       # number of ReadSharedReq miss cycles
system.l3.demand_miss_latency::cpu.inst      99332000                       # number of demand (read+write) miss cycles
system.l3.demand_miss_latency::cpu.data      81159000                       # number of demand (read+write) miss cycles
system.l3.demand_miss_latency::total        180491000                       # number of demand (read+write) miss cycles
system.l3.overall_miss_latency::cpu.inst     99332000                       # number of overall miss cycles
system.l3.overall_miss_latency::cpu.data     81159000                       # number of overall miss cycles
system.l3.overall_miss_latency::total       180491000                       # number of overall miss cycles
system.l3.WriteClean_accesses::writebacks      1080510                       # number of WriteClean accesses(hits+misses)
system.l3.WriteClean_accesses::total          1080510                       # number of WriteClean accesses(hits+misses)
system.l3.UpgradeReq_accesses::cpu.data       1080453                       # number of UpgradeReq accesses(hits+misses)
system.l3.UpgradeReq_accesses::total          1080453                       # number of UpgradeReq accesses(hits+misses)
system.l3.ReadExReq_accesses::cpu.data             73                       # number of ReadExReq accesses(hits+misses)
system.l3.ReadExReq_accesses::total                73                       # number of ReadExReq accesses(hits+misses)
system.l3.ReadSharedReq_accesses::cpu.inst          320                       # number of ReadSharedReq accesses(hits+misses)
system.l3.ReadSharedReq_accesses::cpu.data           77                       # number of ReadSharedReq accesses(hits+misses)
system.l3.ReadSharedReq_accesses::total           397                       # number of ReadSharedReq accesses(hits+misses)
system.l3.demand_accesses::cpu.inst               320                       # number of demand (read+write) accesses
system.l3.demand_accesses::cpu.data               150                       # number of demand (read+write) accesses
system.l3.demand_accesses::total                  470                       # number of demand (read+write) accesses
system.l3.overall_accesses::cpu.inst              320                       # number of overall (read+write) accesses
system.l3.overall_accesses::cpu.data              150                       # number of overall (read+write) accesses
system.l3.overall_accesses::total                 470                       # number of overall (read+write) accesses
system.l3.UpgradeReq_miss_rate::cpu.data     0.499975                       # miss rate for UpgradeReq accesses
system.l3.UpgradeReq_miss_rate::total        0.499975                       # miss rate for UpgradeReq accesses
system.l3.ReadExReq_miss_rate::cpu.data             1                       # miss rate for ReadExReq accesses
system.l3.ReadExReq_miss_rate::total                1                       # miss rate for ReadExReq accesses
system.l3.ReadSharedReq_miss_rate::cpu.inst            1                       # miss rate for ReadSharedReq accesses
system.l3.ReadSharedReq_miss_rate::cpu.data            1                       # miss rate for ReadSharedReq accesses
system.l3.ReadSharedReq_miss_rate::total            1                       # miss rate for ReadSharedReq accesses
system.l3.demand_miss_rate::cpu.inst                1                       # miss rate for demand accesses
system.l3.demand_miss_rate::cpu.data                1                       # miss rate for demand accesses
system.l3.demand_miss_rate::total                   1                       # miss rate for demand accesses
system.l3.overall_miss_rate::cpu.inst               1                       # miss rate for overall accesses
system.l3.overall_miss_rate::cpu.data               1                       # miss rate for overall accesses
system.l3.overall_miss_rate::total                  1                       # miss rate for overall accesses
system.l3.UpgradeReq_avg_miss_latency::cpu.data 374713.407071                       # average UpgradeReq miss latency
system.l3.UpgradeReq_avg_miss_latency::total 374713.407071                       # average UpgradeReq miss latency
system.l3.ReadExReq_avg_miss_latency::cpu.data 750547.945205                       # average ReadExReq miss latency
system.l3.ReadExReq_avg_miss_latency::total 750547.945205                       # average ReadExReq miss latency
system.l3.ReadSharedReq_avg_miss_latency::cpu.inst 310412.500000                       # average ReadSharedReq miss latency
system.l3.ReadSharedReq_avg_miss_latency::cpu.data 342454.545455                       # average ReadSharedReq miss latency
system.l3.ReadSharedReq_avg_miss_latency::total 316627.204030                       # average ReadSharedReq miss latency
system.l3.demand_avg_miss_latency::cpu.inst 310412.500000                       # average overall miss latency
system.l3.demand_avg_miss_latency::cpu.data       541060                       # average overall miss latency
system.l3.demand_avg_miss_latency::total 384023.404255                       # average overall miss latency
system.l3.overall_avg_miss_latency::cpu.inst 310412.500000                       # average overall miss latency
system.l3.overall_avg_miss_latency::cpu.data       541060                       # average overall miss latency
system.l3.overall_avg_miss_latency::total 384023.404255                       # average overall miss latency
system.l3.blocked_cycles::no_mshrs                  0                       # number of cycles access was blocked
system.l3.blocked_cycles::no_targets                0                       # number of cycles access was blocked
system.l3.blocked::no_mshrs                         0                       # number of cycles access was blocked
system.l3.blocked::no_targets                       0                       # number of cycles access was blocked
system.l3.avg_blocked_cycles::no_mshrs            nan                       # average number of cycles each access was blocked
system.l3.avg_blocked_cycles::no_targets          nan                       # average number of cycles each access was blocked
system.l3.UpgradeReq_mshr_misses::cpu.data       540200                       # number of UpgradeReq MSHR misses
system.l3.UpgradeReq_mshr_misses::total        540200                       # number of UpgradeReq MSHR misses
system.l3.ReadExReq_mshr_misses::cpu.data           73                       # number of ReadExReq MSHR misses
system.l3.ReadExReq_mshr_misses::total             73                       # number of ReadExReq MSHR misses
system.l3.ReadSharedReq_mshr_misses::cpu.inst          320                       # number of ReadSharedReq MSHR misses
system.l3.ReadSharedReq_mshr_misses::cpu.data           77                       # number of ReadSharedReq MSHR misses
system.l3.ReadSharedReq_mshr_misses::total          397                       # number of ReadSharedReq MSHR misses
system.l3.demand_mshr_misses::cpu.inst            320                       # number of demand (read+write) MSHR misses
system.l3.demand_mshr_misses::cpu.data            150                       # number of demand (read+write) MSHR misses
system.l3.demand_mshr_misses::total               470                       # number of demand (read+write) MSHR misses
system.l3.overall_mshr_misses::cpu.inst           320                       # number of overall MSHR misses
system.l3.overall_mshr_misses::cpu.data           150                       # number of overall MSHR misses
system.l3.overall_mshr_misses::total              470                       # number of overall MSHR misses
system.l3.UpgradeReq_mshr_miss_latency::cpu.data 197018182500                       # number of UpgradeReq MSHR miss cycles
system.l3.UpgradeReq_mshr_miss_latency::total 197018182500                       # number of UpgradeReq MSHR miss cycles
system.l3.ReadExReq_mshr_miss_latency::cpu.data     54060000                       # number of ReadExReq MSHR miss cycles
system.l3.ReadExReq_mshr_miss_latency::total     54060000                       # number of ReadExReq MSHR miss cycles
system.l3.ReadSharedReq_mshr_miss_latency::cpu.inst     96132000                       # number of ReadSharedReq MSHR miss cycles
system.l3.ReadSharedReq_mshr_miss_latency::cpu.data     25599000                       # number of ReadSharedReq MSHR miss cycles
system.l3.ReadSharedReq_mshr_miss_latency::total    121731000                       # number of ReadSharedReq MSHR miss cycles
system.l3.demand_mshr_miss_latency::cpu.inst     96132000                       # number of demand (read+write) MSHR miss cycles
system.l3.demand_mshr_miss_latency::cpu.data     79659000                       # number of demand (read+write) MSHR miss cycles
system.l3.demand_mshr_miss_latency::total    175791000                       # number of demand (read+write) MSHR miss cycles
system.l3.overall_mshr_miss_latency::cpu.inst     96132000                       # number of overall MSHR miss cycles
system.l3.overall_mshr_miss_latency::cpu.data     79659000                       # number of overall MSHR miss cycles
system.l3.overall_mshr_miss_latency::total    175791000                       # number of overall MSHR miss cycles
system.l3.UpgradeReq_mshr_miss_rate::cpu.data     0.499975                       # mshr miss rate for UpgradeReq accesses
system.l3.UpgradeReq_mshr_miss_rate::total     0.499975                       # mshr miss rate for UpgradeReq accesses
system.l3.ReadExReq_mshr_miss_rate::cpu.data            1                       # mshr miss rate for ReadExReq accesses
system.l3.ReadExReq_mshr_miss_rate::total            1                       # mshr miss rate for ReadExReq accesses
system.l3.ReadSharedReq_mshr_miss_rate::cpu.inst            1                       # mshr miss rate for ReadSharedReq accesses
system.l3.ReadSharedReq_mshr_miss_rate::cpu.data            1                       # mshr miss rate for ReadSharedReq accesses
system.l3.ReadSharedReq_mshr_miss_rate::total            1                       # mshr miss rate for ReadSharedReq accesses
system.l3.demand_mshr_miss_rate::cpu.inst            1                       # mshr miss rate for demand accesses
system.l3.demand_mshr_miss_rate::cpu.data            1                       # mshr miss rate for demand accesses
system.l3.demand_mshr_miss_rate::total              1                       # mshr miss rate for demand accesses
system.l3.overall_mshr_miss_rate::cpu.inst            1                       # mshr miss rate for overall accesses
system.l3.overall_mshr_miss_rate::cpu.data            1                       # mshr miss rate for overall accesses
system.l3.overall_mshr_miss_rate::total             1                       # mshr miss rate for overall accesses
system.l3.UpgradeReq_avg_mshr_miss_latency::cpu.data 364713.407071                       # average UpgradeReq mshr miss latency
system.l3.UpgradeReq_avg_mshr_miss_latency::total 364713.407071                       # average UpgradeReq mshr miss latency
system.l3.ReadExReq_avg_mshr_miss_latency::cpu.data 740547.945205                       # average ReadExReq mshr miss latency
system.l3.ReadExReq_avg_mshr_miss_latency::total 740547.945205                       # average ReadExReq mshr miss latency
system.l3.ReadSharedReq_avg_mshr_miss_latency::cpu.inst 300412.500000                       # average ReadSharedReq mshr miss latency
system.l3.ReadSharedReq_avg_mshr_miss_latency::cpu.data 332454.545455                       # average ReadSharedReq mshr miss latency
system.l3.ReadSharedReq_avg_mshr_miss_latency::total 306627.204030                       # average ReadSharedReq mshr miss latency
system.l3.demand_avg_mshr_miss_latency::cpu.inst 300412.500000                       # average overall mshr miss latency
system.l3.demand_avg_mshr_miss_latency::cpu.data       531060                       # average overall mshr miss latency
system.l3.demand_avg_mshr_miss_latency::total 374023.404255                       # average overall mshr miss latency
system.l3.overall_avg_mshr_miss_latency::cpu.inst 300412.500000                       # average overall mshr miss latency
system.l3.overall_avg_mshr_miss_latency::cpu.data       531060                       # average overall mshr miss latency
system.l3.overall_avg_mshr_miss_latency::total 374023.404255                       # average overall mshr miss latency
system.l3.replacements                              0                       # number of replacements
system.membus.snoop_filter.tot_requests        540670                       # Total number of requests made to the snoop filter.
system.membus.snoop_filter.hit_single_requests       540200                       # Number of requests hitting in the snoop filter with a single holder of the requested data.
system.membus.snoop_filter.hit_multi_requests            0                       # Number of requests hitting in the snoop filter with multiple (>1) holders of the requested data.
system.membus.snoop_filter.tot_snoops               0                       # Total number of snoops made to the snoop filter.
system.membus.snoop_filter.hit_single_snoops            0                       # Number of snoops hitting in the snoop filter with a single holder of the requested data.
system.membus.snoop_filter.hit_multi_snoops            0                       # Number of snoops hitting in the snoop filter with multiple (>1) holders of the requested data.
system.membus.pwrStateResidencyTicks::UNDEFINED 270486762000                       # Cumulative time (in ticks) in various power states
system.membus.trans_dist::ReadResp                397                       # Transaction distribution
system.membus.trans_dist::WriteClean           540253                       # Transaction distribution
system.membus.trans_dist::UpgradeReq           540200                       # Transaction distribution
system.membus.trans_dist::ReadExReq                73                       # Transaction distribution
system.membus.trans_dist::ReadExResp               73                       # Transaction distribution
system.membus.trans_dist::ReadSharedReq           397                       # Transaction distribution
system.membus.pkt_count_system.l3.mem_side::system.mem_ctrls.port      1081393                       # Packet count per connected master and slave (bytes)
system.membus.pkt_count_system.l3.mem_side::total      1081393                       # Packet count per connected master and slave (bytes)
system.membus.pkt_count::total                1081393                       # Packet count per connected master and slave (bytes)
system.membus.pkt_size_system.l3.mem_side::system.mem_ctrls.port     34606272                       # Cumulative packet size per connected master and slave (bytes)
system.membus.pkt_size_system.l3.mem_side::total     34606272                       # Cumulative packet size per connected master and slave (bytes)
system.membus.pkt_size::total                34606272                       # Cumulative packet size per connected master and slave (bytes)
system.membus.snoops                                0                       # Total snoops (count)
system.membus.snoopTraffic                          0                       # Total snoop traffic (bytes)
system.membus.snoop_fanout::samples            540670                       # Request fanout histogram
system.membus.snoop_fanout::mean                    0                       # Request fanout histogram
system.membus.snoop_fanout::stdev                   0                       # Request fanout histogram
system.membus.snoop_fanout::underflows              0      0.00%      0.00% # Request fanout histogram
system.membus.snoop_fanout::0                  540670    100.00%    100.00% # Request fanout histogram
system.membus.snoop_fanout::1                       0      0.00%    100.00% # Request fanout histogram
system.membus.snoop_fanout::overflows               0      0.00%    100.00% # Request fanout histogram
system.membus.snoop_fanout::min_value               0                       # Request fanout histogram
system.membus.snoop_fanout::max_value               0                       # Request fanout histogram
system.membus.snoop_fanout::total              540670                       # Request fanout histogram
system.membus.reqLayer2.occupancy          3860637000                       # Layer occupancy (ticks)
system.membus.reqLayer2.utilization               1.4                       # Layer utilization (%)
system.membus.respLayer1.occupancy            2380000                       # Layer occupancy (ticks)
system.membus.respLayer1.utilization              0.0                       # Layer utilization (%)
system.tol2bus.snoop_filter.tot_requests      2161464                       # Total number of requests made to the snoop filter.
system.tol2bus.snoop_filter.hit_single_requests      2160993                       # Number of requests hitting in the snoop filter with a single holder of the requested data.
system.tol2bus.snoop_filter.hit_multi_requests            0                       # Number of requests hitting in the snoop filter with multiple (>1) holders of the requested data.
system.tol2bus.snoop_filter.tot_snoops        1620763                       # Total number of snoops made to the snoop filter.
system.tol2bus.snoop_filter.hit_single_snoops      1620762                       # Number of snoops hitting in the snoop filter with a single holder of the requested data.
system.tol2bus.snoop_filter.hit_multi_snoops            1                       # Number of snoops hitting in the snoop filter with multiple (>1) holders of the requested data.
system.tol2bus.pwrStateResidencyTicks::UNDEFINED 270486762000                       # Cumulative time (in ticks) in various power states
system.tol2bus.trans_dist::ReadResp               399                       # Transaction distribution
system.tol2bus.trans_dist::WritebackClean           30                       # Transaction distribution
system.tol2bus.trans_dist::WriteClean         3781841                       # Transaction distribution
system.tol2bus.trans_dist::CleanEvict               1                       # Transaction distribution
system.tol2bus.trans_dist::UpgradeReq         2160961                       # Transaction distribution
system.tol2bus.trans_dist::UpgradeResp        2160961                       # Transaction distribution
system.tol2bus.trans_dist::ReadExReq               73                       # Transaction distribution
system.tol2bus.trans_dist::ReadExResp              73                       # Transaction distribution
system.tol2bus.trans_dist::ReadCleanReq           322                       # Transaction distribution
system.tol2bus.trans_dist::ReadSharedReq           77                       # Transaction distribution
system.tol2bus.pkt_count_system.cpu.icache.mem_side::system.l2.cpu_side          674                       # Packet count per connected master and slave (bytes)
system.tol2bus.pkt_count_system.cpu.dcache.mem_side::system.l2.cpu_side      6483301                       # Packet count per connected master and slave (bytes)
system.tol2bus.pkt_count::total               6483975                       # Packet count per connected master and slave (bytes)
system.tol2bus.pkt_size_system.cpu.icache.mem_side::system.l2.cpu_side        22528                       # Cumulative packet size per connected master and slave (bytes)
system.tol2bus.pkt_size_system.cpu.dcache.mem_side::system.l2.cpu_side    138318592                       # Cumulative packet size per connected master and slave (bytes)
system.tol2bus.pkt_size::total              138341120                       # Cumulative packet size per connected master and slave (bytes)
system.tol2bus.snoops                         1620763                       # Total snoops (count)
system.tol2bus.snoopTraffic                 103728832                       # Total snoop traffic (bytes)
system.tol2bus.snoop_fanout::samples          3782196                       # Request fanout histogram
system.tol2bus.snoop_fanout::mean            0.428525                       # Request fanout histogram
system.tol2bus.snoop_fanout::stdev           0.494866                       # Request fanout histogram
system.tol2bus.snoop_fanout::underflows             0      0.00%      0.00% # Request fanout histogram
system.tol2bus.snoop_fanout::0                2161432     57.15%     57.15% # Request fanout histogram
system.tol2bus.snoop_fanout::1                1620763     42.85%    100.00% # Request fanout histogram
system.tol2bus.snoop_fanout::2                      1      0.00%    100.00% # Request fanout histogram
system.tol2bus.snoop_fanout::3                      0      0.00%    100.00% # Request fanout histogram
system.tol2bus.snoop_fanout::4                      0      0.00%    100.00% # Request fanout histogram
system.tol2bus.snoop_fanout::overflows              0      0.00%    100.00% # Request fanout histogram
system.tol2bus.snoop_fanout::min_value              0                       # Request fanout histogram
system.tol2bus.snoop_fanout::max_value              2                       # Request fanout histogram
system.tol2bus.snoop_fanout::total            3782196                       # Request fanout histogram
system.tol2bus.reqLayer0.occupancy         4322379000                       # Layer occupancy (ticks)
system.tol2bus.reqLayer0.utilization              1.6                       # Layer utilization (%)
system.tol2bus.respLayer0.occupancy            483000                       # Layer occupancy (ticks)
system.tol2bus.respLayer0.utilization             0.0                       # Layer utilization (%)
system.tol2bus.respLayer1.occupancy        1080705500                       # Layer occupancy (ticks)
system.tol2bus.respLayer1.utilization             0.4                       # Layer utilization (%)
system.tol3bus.pwrStateResidencyTicks::UNDEFINED 270486762000                       # Cumulative time (in ticks) in various power states
system.tol3bus.trans_dist::ReadResp               397                       # Transaction distribution
system.tol3bus.trans_dist::WriteClean         1620763                       # Transaction distribution
system.tol3bus.trans_dist::UpgradeReq         1080453                       # Transaction distribution
system.tol3bus.trans_dist::UpgradeResp        1080453                       # Transaction distribution
system.tol3bus.trans_dist::ReadExReq               73                       # Transaction distribution
system.tol3bus.trans_dist::ReadExResp              73                       # Transaction distribution
system.tol3bus.trans_dist::ReadSharedReq          397                       # Transaction distribution
system.tol3bus.pkt_count_system.l2.mem_side::system.l3.cpu_side      3242356                       # Packet count per connected master and slave (bytes)
system.tol3bus.pkt_size_system.l2.mem_side::system.l3.cpu_side     69182720                       # Cumulative packet size per connected master and slave (bytes)
system.tol3bus.snoops                          540253                       # Total snoops (count)
system.tol3bus.snoopTraffic                  34576192                       # Total snoop traffic (bytes)
system.tol3bus.snoop_fanout::samples          1621176                       # Request fanout histogram
system.tol3bus.snoop_fanout::mean            0.333248                       # Request fanout histogram
system.tol3bus.snoop_fanout::stdev           0.471374                       # Request fanout histogram
system.tol3bus.snoop_fanout::underflows             0      0.00%      0.00% # Request fanout histogram
system.tol3bus.snoop_fanout::0                1080923     66.68%     66.68% # Request fanout histogram
system.tol3bus.snoop_fanout::1                 540253     33.32%    100.00% # Request fanout histogram
system.tol3bus.snoop_fanout::overflows              0      0.00%    100.00% # Request fanout histogram
system.tol3bus.snoop_fanout::min_value              0                       # Request fanout histogram
system.tol3bus.snoop_fanout::max_value              1                       # Request fanout histogram
system.tol3bus.snoop_fanout::total            1621176                       # Request fanout histogram
system.tol3bus.reqLayer0.occupancy         2161226500                       # Layer occupancy (ticks)
system.tol3bus.reqLayer0.utilization              0.8                       # Layer utilization (%)
system.tol3bus.respLayer0.occupancy         540931500                       # Layer occupancy (ticks)
system.tol3bus.respLayer0.utilization             0.2                       # Layer utilization (%)

---------- End Simulation Statistics   ----------
